     305
 i =        1, E =       -15.4431781758
 Cd        -2.6146747730       -1.4493455678       -4.0154536483
 Cd        -2.5156831227       -4.1362224227       -0.7000539076
 Cd        -4.9066712718       -0.6673604701       -0.5837901486
 Cd         0.8046199155        0.8178344058       -4.8686698355
 Cd         0.9021026379       -1.9845858364       -1.7038608236
 Cd        -1.5288444700        1.7570539698       -1.4511836038
 Cd         0.8155060348       -4.6846032921        1.6288412678
 Cd        -1.5173930074       -1.1267944334        1.9558397719
 Cd        -3.7011690400        2.5181059855        2.1142531048
 Cd         4.3312368633        0.3714510917       -2.4336340505
 Cd         2.0010562677        3.9938905748       -2.1813076163
 Cd         4.3030703471       -2.3334935447        0.7825243797
 Cd         2.1354190212        1.2824366967        1.0613908729
 Cd        -0.2716529828        4.7755883279        1.2558220718
 Cd         2.0172374353       -1.5074968263        4.3199172776
 Cd        -0.2267345725        1.9208947238        4.4239922651
 Se        -1.1307265917       -3.3200770112       -2.8308420643
 Se        -3.6557123751        0.5618446768       -2.6005088412
 Se        -3.6573401620       -2.4208453349        0.9894790334
 Se         2.4277446184       -0.9717583584       -3.7206972057
 Se        -0.0738751782        2.9052356108       -3.4569476199
 Se         2.3995693501       -3.8130134558       -0.3464632527
 Se         0.0082559768       -0.0199636809       -0.0383680241
 Se        -2.4520109393        3.7586946542        0.1021059396
 Se        -0.0690006031       -2.9168028410        3.4271315478
 Se        -2.4734975607        0.7160982923        3.6481685647
 Se         3.7071084327        2.4200653523       -0.8499180694
 Se         3.6811342979       -0.4188988014        2.5264442428
 Se         1.3445148810        3.2375875422        2.7154997870
 Cd        -3.3885947915       -4.5109003300       -6.5998905789
 Cd        -5.8238485478       -0.5245074781       -6.2558474652
 Cd        -3.8420042723       -7.0498490400       -3.6504659566
 Cd        -6.0652466899       -4.0600708616       -3.3269838530
 Cd        -7.9777648804        0.1423112501       -2.9180033808
 Cd        -5.8636967559       -6.2374002127        0.5807039072
 Cd        -7.9856690727       -2.8197494755        0.5937251385
 Cd        -0.2811825169       -2.4705521593       -7.5581270529
 Cd        -2.7449038282        1.4539363477       -7.2708795635
 Cd        -0.2071095880       -5.3997330037       -4.5941416263
 Cd        -5.1776815743        2.5214858930       -4.0490765558
 Cd        -0.4888788025       -7.8202407236       -1.3537937951
 Cd        -7.1830031487        3.0630144261       -0.4738908575
 Cd        -2.7725403275       -6.9068912354        2.6174385157
 Cd        -5.2093973207       -3.5330936519        3.1387399928
 Cd        -7.1938759340        0.1004384084        3.0434420006
 Cd         2.9426807401       -0.4545264204       -8.0180084066
 Cd         0.3714225959        3.5871606043       -7.7520632392
 Cd         3.2200690636       -3.1900320137       -5.3671508385
 Cd        -1.8185411565        4.7243910755       -4.8247668859
 Cd         3.1704904916       -5.8121210550       -2.2505566046
 Cd        -4.0411087569        5.5505411038       -1.4922261717
 Cd         2.7684526252       -7.9907180516        0.8275585193
 Cd        -5.8310336188        5.8331823235        1.9019999979
 Cd         0.3248463633       -7.0235997605        4.8169544540
 Cd        -1.8440355451       -3.9428590864        5.4325390993
 Cd        -4.0742934676       -0.5271316749        5.6930528216
 Cd        -5.8336178910        2.8691399262        5.4127182936
 Cd         6.2721399577       -0.8896941709       -5.6958675129
 Cd         4.0829913222        2.9647187092       -5.3850792732
 Cd         1.5042536312        6.5814445598       -5.2122869374
 Cd         6.5206835308       -3.3488488920       -2.7901714601
 Cd        -0.4391243058        7.5754171136       -2.0875311353
 Cd         6.1844456875       -5.7944565154        0.1305142353
 Cd        -2.5923423140        8.0500624429        1.0017286775
 Cd         4.0340802480       -4.8284809016        3.8588882826
 Cd        -2.3652920338        5.7473724462        4.9763105110
 Cd         1.4526701380       -4.0336199657        7.3560060863
 Cd        -0.4567948923       -0.7776564580        7.8075693952
 Cd        -2.6431849100        2.2756831877        7.7871983601
 Cd         7.6068773504        2.6442082271       -2.7025374141
 Cd         5.4165559878        6.0784477815       -2.4790831286
 Cd         7.8244749924        0.1016114540        0.1336590047
 Cd         5.8389641082        3.7619450203        0.5241757884
 Cd         3.3440616097        7.1265432309        0.5631769438
 Cd         7.5254256201       -2.2258005373        3.1495057075
 Cd         5.7940721983        1.1577334322        3.6491876182
 Cd         3.5720268090        4.6295497398        3.8894384364
 Cd         1.2133847719        7.6750352476        3.7004833052
 Cd         5.2797019330       -1.3094016983        6.4798087336
 Cd         3.2021619122        1.9852224712        6.9404639684
 Cd         0.8369247552        5.3789249833        6.8597478742
 Se        -2.3418344881       -6.6636888088       -5.7290312795
 Se        -4.7424857378       -2.6928637549       -5.2222048822
 Se        -7.3599619813        1.1960575007       -5.1639970726
 Se        -4.6394856303       -5.4967257540       -1.6198935648
 Se        -7.0730420611       -2.0577433351       -1.7682747100
 Se        -7.4176494739       -4.8396634080        2.0505686551
 Se         1.2120509807       -4.3497376736       -6.5870523180
 Se        -1.2155621926       -0.4112940698       -6.0705519730
 Se        -3.7817381670        3.4991827568       -6.0733920155
 Se         1.1800077832       -7.2002080861       -3.2426206416
 Se        -6.1829103999        4.3710704318       -2.4686102595
 Se        -1.1954929702       -6.0657621002        0.6026036093
 Se        -5.8414044085        1.2790150576        1.0353778695
 Se        -3.8083516497       -5.3682597503        4.4277443962
 Se        -6.2237040165       -1.6560178866        4.6784183125
 Se         4.8129759774       -2.0718162619       -7.4079742757
 Se         2.3295913002        1.9363590546       -6.9895441340
 Se        -0.2797095888        5.8885787792       -6.8854486990
 Se         4.8275025972       -4.8257264756       -4.0628032628
 Se        -2.5559688247        6.7513931629       -3.3240146634
 Se         4.7162052906       -7.6511517010       -0.7896023684
 Se        -4.9654294005        7.5475975445        0.2116332727
 Se         2.3084409461       -6.6039089920        3.0878405361
 Se        -4.5610825464        4.5829850690        3.8543066293
 Se        -0.3375998635       -5.7897480725        6.9414553203
 Se        -2.5806596672       -2.1255092070        7.1792229387
 Se        -5.0335242401        1.4633862599        7.3908731573
 Se         5.9898786621        1.4639635260       -4.4649433403
 Se         3.5723345441        5.2183440368       -4.2113679741
 Se         5.8980933083       -1.3309722318       -1.1066022634
 Se         1.2018679890        5.9980253868       -0.6415840098
 Se         5.9295766997       -4.1551726787        2.2215016528
 Se        -1.1485128889        6.8338601226        2.8424310768
 Se         3.5585994318       -3.2920884235        5.8972192526
 Se         1.2279822117        0.3503170027        6.0317908371
 Se        -1.1545306243        3.7242253901        6.1806761336
 Se         7.4431550363        4.8827380107       -1.5100396780
 Se         7.4217831536        2.0588247410        1.7689651272
 Se         5.0359697177        5.7845184432        1.9859864960
 Se         7.3502997124       -0.6538337340        5.1372931536
 Se         5.0141815249        2.9755930851        5.3677442373
 Se         2.6680523848        6.6280435782        5.5104415566
  C        -1.1273270869        9.3032568781        8.1667837176
  C        -1.7379445656        7.9388487431        7.7471962218
  O        -2.7280600274        7.5607985230        8.4581249744
  O        -1.2588430571        7.3003438633        6.7762511926
  H        -1.1966130638        9.9954825793        7.3048710000
  H        -0.0620353008        9.1416936802        8.4263176318
  H        -1.6501559854        9.7504146840        9.0375432598
  C         1.2590496603       10.6946073094       -5.2043696503
  C         1.6975849176        9.8413052699       -3.9800656011
  O         2.5007752512       10.4303560287       -3.1938675353
  O         1.2678211219        8.6661669148       -3.8463742341
  H         0.1549721072       10.7941010686       -5.1779109323
  H         1.5604781512       10.1652408043       -6.1270090148
  H         1.7157126620       11.7065139917       -5.1962302154
  C        -6.1344046010        0.4700779644      -10.3398152489
  C        -4.9728202838       -0.2633549538       -9.6117385986
  O        -4.4128837171       -1.1718111473      -10.3029082601
  O        -4.6682787865        0.0516540438       -8.4329754372
  H        -5.8860737994        1.5494803173      -10.3873032343
  H        -7.0603870738        0.3300282707       -9.7508597128
  H        -6.2944332651        0.0884274766      -11.3692976275
  C         1.1455294984       -3.3174843278       11.4370556945
  C         1.6735174628       -2.3202800912       10.3674181990
  O         2.5705859825       -1.5436928669       10.7885789550
  O         1.2138024635       -2.3513748454        9.1969066343
  H         1.3305483214       -4.3465724692       11.0774409775
  H         0.0549331366       -3.1555961623       11.5532573076
  H         1.6399214985       -3.1787524602       12.4208282186
  C        -7.5674368029       -7.7051226299       -6.2797012586
  C        -7.3521219236       -7.0249903675       -4.9019387376
  O        -8.2361495840       -7.3095266106       -4.0263675068
  O        -6.3702443172       -6.2628375481       -4.7147756423
  H        -6.6766638676       -8.3247691235       -6.5051767292
  H        -7.6685220721       -6.9132420455       -7.0471124710
  H        -8.4717519721       -8.3478040178       -6.2978229593
  C        11.5241928494       -1.9915236218        2.1451668355
  C        10.3851280892       -2.2619021260        1.1227348815
  O        10.7349411151       -2.9573650474        0.1173342910
  O         9.2263301276       -1.8176569990        1.3380269001
  H        11.2254112379       -2.4127258012        3.1229429542
  H        11.6514846019       -0.8940555802        2.2378767384
  H        12.4877543774       -2.4430645056        1.8293913355
  C        -9.9478079687        2.4485263958        5.9529030902
  C        -9.1851869007        2.7446956540        4.6335305485
  O        -9.7831316267        3.5436089737        3.8477537777
  O        -8.0657144710        2.2102804898        4.4183703433
  H        -9.3088069956        2.7581041072        6.8025005706
  H       -10.1350227969        1.3584554669        6.0098531715
  H       -10.9161395950        2.9884501992        6.0095942115
  C         3.2522394013       11.2197018745        2.7279520006
  C         2.2598873513       10.3882942213        1.8672385070
  O         1.4610629518       11.0857895950        1.1913843858
  O         2.2863062897        9.1306807469        1.9117621392
  H         4.2828644332       10.9457812312        2.4237138405
  H         3.0993922995       10.9578389939        3.7911720788
  H         3.1119205332       12.3115546042        2.5933158995
  C        -1.6306979833      -10.6683044624        5.2129724642
  C        -1.2220743070       -9.9852208260        3.8779598034
  O        -0.9289675704      -10.7953218996        2.9410645062
  O        -1.1976215419       -8.7300726622        3.7938748476
  H        -2.6580242152      -10.3420009722        5.4700699560
  H        -0.9296717209      -10.3380108530        6.0023605996
  H        -1.6072104936      -11.7756284878        5.1432013889
  C         3.1851655270        4.8179405089       10.4512028766
  C         1.9935097531        4.1753880006        9.6902689742
  O         0.9094830451        4.1108990419       10.3620312221
  O         2.1331507987        3.7889723601        8.5034146929
  H         3.5211664789        5.7089460385        9.8887142172
  H         4.0074824531        4.0744636266       10.4909749689
  H         2.9146436353        5.1162921725       11.4843157432
  C        -1.8722131116       11.8316073481       -0.3582315896
  C        -0.8024142870       10.7297668959       -0.6006587946
  O         0.3212699639       11.1702380895       -0.9930816972
  O        -1.0947126221        9.5178578940       -0.4218739108
  H        -2.2055434651       11.7679593491        0.6948440352
  H        -2.7287426409       11.6380364249       -1.0316718109
  H        -1.4772182865       12.8502413884       -0.5546558638
  C        -3.3517031525       -4.6466780452      -10.6143860176
  C        -2.4895338178       -3.5292601793       -9.9593965773
  O        -1.8930408819       -2.8191250121      -10.7782225992
  O        -2.4445305838       -3.4246597389       -8.7045262608
  H        -4.4033587286       -4.5011735874      -10.3009259550
  H        -2.9868140989       -5.6257971808      -10.2516691251
  H        -3.2947436339       -4.6226814474      -11.7224996026
  C        -6.2274187662      -10.0917664972        2.2045861320
  C        -5.0066693418       -9.5250002537        1.4252660341
  O        -4.3788157074      -10.3901778509        0.7398364326
  O        -4.7216436162       -8.3031659105        1.5014835733
  H        -7.1353981661       -9.5584290353        1.8646200763
  H        -6.0681935164       -9.8998956274        3.2841729292
  H        -6.3606642410      -11.1811493764        2.0439372328
  C       -11.4840985682       -1.6236625540        2.4933432516
  C       -10.4999023284       -0.7221063402        1.7014164951
  O       -11.0550343837        0.2142473274        1.0470920533
  O        -9.2637221147       -0.9566540833        1.7329745618
  H       -11.2120793392       -1.5746921901        3.5666819324
  H       -11.3744539766       -2.6642564998        2.1324195033
  H       -12.5401925681       -1.3042768020        2.3709428748
  C         6.0418384110       -0.1074364337       10.2606107679
  C         4.6511123913        0.2058108928        9.6382508337
  O         3.7865178988        0.6220221667       10.4708539924
  O         4.4663708577        0.0546819350        8.4031805300
  H         6.7945969629        0.5411176991        9.7728840148
  H         6.2815391874       -1.1690832260       10.0607354188
  H         6.0611123537        0.0702908350       11.3562909802
  C         9.9412491553       -6.4401380099       -1.1875309936
  C         9.2102064049       -5.1699929858       -1.7075279110
  O         9.8473488535       -4.5201858377       -2.5976389253
  O         8.0748862984       -4.8670414877       -1.2571039168
  H         9.3018538496       -7.3191469954       -1.3919912035
  H        10.0886255530       -6.3321667816       -0.0955790470
  H        10.9283454225       -6.5847694976       -1.6749962778
  C         0.7558787876      -11.9265187678       -0.0187377579
  C         1.2594743886      -10.6459288978        0.6925778183
  O         2.0832051089      -10.8544931114        1.6511853389
  O         0.8783761301       -9.5094031528        0.3148324386
  H         1.0350744817      -11.8655177043       -1.0878143290
  H        -0.3506672393      -11.9561028405        0.0720205745
  H         1.1803548806      -12.8501910606        0.4211030338
  C         9.8953071479       -2.9547105119       -5.9791665118
  C         9.3588646465       -2.0988967935       -4.7986747750
  O        10.2478939583       -1.4186165045       -4.1992583903
  O         8.1298803822       -2.1027839514       -4.5229387818
  H         9.3849353937       -2.6352522867       -6.9055393541
  H         9.6544003386       -4.0174921923       -5.7705674362
  H        10.9922465536       -2.8505771459       -6.1092289895
  C         6.1416712750       10.0281988304       -2.1751865760
  C         4.8614260374        9.4784078174       -1.4843697728
  O         4.1549303845       10.3623567885       -0.9032559339
  O         4.6060542042        8.2460475596       -1.5219164372
  H         6.0887792692        9.7804785548       -3.2525181049
  H         7.0216279911        9.5342813631       -1.7219697823
  H         6.2411834220       11.1278822855       -2.0580293195
  C       -11.5715096976        1.7222050903       -2.0856034801
  C       -10.4117486485        2.0836498675       -1.1163913514
  O       -10.7443072212        2.8524454315       -0.1594227411
  O        -9.2560871294        1.6261050735       -1.3175496838
  H       -11.6943840359        0.6217806877       -2.0847470203
  H       -11.2965250023        2.0642758936       -3.1015038364
  H       -12.5308131028        2.1952431635       -1.7885315985
  C        -3.4998149516      -10.9941764948       -3.2924642229
  C        -2.8160403391      -10.1933415920       -2.1489401510
  O        -2.4575184306      -10.8985942636       -1.1541238909
  O        -2.6539049362       -8.9510946713       -2.2617344935
  H        -2.9030733383      -10.8620371908       -4.2155651801
  H        -4.5160145071      -10.5833384965       -3.4457759001
  H        -3.5759870295      -12.0764879172       -3.0595013504
  C        -1.7150398892        3.2884088308      -11.4086089302
  C        -1.0441192441        2.2126746608      -10.5098290397
  O        -0.4063419776        1.3408247547      -11.1478463095
  O        -1.1433503281        2.2857874362       -9.2574862453
  H        -1.3009744864        4.2778487610      -11.1383831142
  H        -2.8049996531        3.2755129802      -11.2072033541
  H        -1.5421272183        3.1008879399      -12.4889036827
  C         1.8473893737       -1.5330800276      -11.7652649836
  C         0.7461315672       -1.2313781529      -10.7097788061
  O        -0.3951758337       -1.0604100764      -11.2020021093
  O         1.0463691480       -1.1614096865       -9.4881265021
  H         2.2983600245       -2.5145711991      -11.5227447297
  H         2.6178870677       -0.7424789349      -11.7012790537
  H         1.4401376053       -1.5636845112      -12.7976470588
  C        11.5047044316        1.6532311444       -2.6040126499
  C        10.4892946080        0.6123448984       -2.0527261294
  O        11.0043815421       -0.5046995479       -1.7287966606
  O         9.2717810707        0.9147549981       -1.9505787746
  H        11.4803392030        2.5445862764       -1.9484467080
  H        11.1924893657        1.9348853117       -3.6276845212
  H        12.5398150416        1.2527170993       -2.6362189074
  C        -1.9659453780        1.4208315953       11.7742724980
  C        -0.8472597019        1.2728171962       10.7026330942
  O         0.3349268113        1.3039960275       11.1701263333
  O        -1.1518205861        1.1334968143        9.4899265897
  H        -2.6047597499        0.5172184319       11.7366587121
  H        -2.5703494339        2.3138277364       11.5242090430
  H        -1.5543955674        1.5350326383       12.7980356746
  C       -10.2761181850        5.8018279443        1.2463577390
  C        -8.9022102549        5.5410766424        1.9125350861
  O        -8.7203369181        6.1556234572        3.0221879927
  O        -8.0537858197        4.7911810422        1.3649314061
  H       -10.7947537980        4.8268514888        1.1338057739
  H       -10.1013160729        6.2412949460        0.2460027100
  H       -10.9136231609        6.4843696487        1.8419816259