     540
 i =     2000, time =     5000.000, E =     -6932.9311023037
 Br         4.6802833597       33.7081062048       12.5405113781
 Br         4.5517696042       34.0292642440       21.5494628555
 Br        13.1254438067        9.2658478744        4.2843551613
 Br        13.3685887038        9.6482191439       12.1851717830
 Br        13.2076452525        9.2767420472       21.2886211238
 Br        12.7624353057       21.5022553013        4.2354406576
 Br        13.2163113126       21.4571420538       13.0890797445
 Br        12.6064647847       21.3984651272       21.6376812103
 Br        13.1600189079       33.7296746555        4.0464767976
 Br        13.2115107152       33.4051909882       13.0230412272
 Br        13.1239647659       33.6395473063       21.1889139106
 Br        21.3272782747        9.4829466162        4.2484049739
 Br        21.8782577320        9.4536115491       12.8595298965
 Br        21.5879201062        9.4495910132       21.0864875904
 Br        21.3750564068       21.6668243436        3.8072054528
 Br        21.2178061602       21.7726825878       12.6330095455
 Br        21.2039636762       21.6158843742       21.0480311155
 Br        21.3055691704       33.4320740486        4.9950114346
 Br        21.6233544430       33.7615840670       12.7595166627
 Br        21.5897574012       33.5232233384       21.0952420588
 Pb         0.0518246182        6.1552102646        0.2401529977
 Pb        -0.0160216335        6.0294671643        8.8136405344
 Pb         0.0168624994        6.0608616045       17.2721197390
 Pb        -0.0800732274       18.2684231394        0.2247590603
 Pb         0.1486358424       18.4380923174        8.7049600174
 Pb         0.0284295082       18.7411171910       17.1544110116
 Pb        -0.0473189050       30.7300715109        0.4996615799
 Pb         0.0321303565       30.4963488354        8.8103839593
 Pb         0.1891882627       30.5109372278       17.0483755177
 Pb         8.5393940889        5.9143514954        0.4649579650
 Pb         8.5289166515        6.2367511451        8.8197717594
 Pb         8.6294082515        6.2872523233       16.9486784048
 Pb         8.0919140877       18.4426003537        0.2738957553
 Pb         8.4775123809       18.4833962604        8.7234997561
 Pb         8.6416720854       18.5092141005       17.4910688660
 Pb         8.3551968270       30.7446828507        0.3435462797
 Pb         8.1905916982       30.7031159578        8.4250247999
 Pb         8.5149012267       30.7417510479       17.3448144256
 Pb        17.0947413977        6.2835846404       -0.0507463198
 Pb        17.2750008976        6.5232068290        8.6189022727
 Pb        17.1118137410        6.4701019361       16.9162536382
 Pb        16.9773362543       18.4452581719        0.2761376728
 Pb        16.9551616687       18.4958340685        8.9129161532
 Pb        17.1047155094       18.5232664038       17.1173741388
 Pb        17.1078244918       30.7670956874        0.4692930581
 Pb        16.9081509278       30.5849738029        8.7159722213
 Pb        17.1329185558       30.5367624920       17.4171792397
 Pb         4.1034434353        6.3664840187        4.6344510274
 Pb         4.1750655214        6.4541554072       12.8843478784
 Pb         4.3366230238        6.2810422513       21.1102372063
 Pb         4.2597703542       18.2338457944        4.6703329471
 Pb         4.4215221762       18.5713369205       12.9626118517
 Pb         4.2700420506       18.7143555272       21.4449555154
 Pb         4.1339496702       30.9248750363        4.3624750158
 Pb         4.2787324941       30.5642672810       12.8487156116
 Pb         4.1280000185       30.8912741727       21.4470611567
 Pb        12.8638299761        6.2285453090        4.5424730355
 Pb        13.0569684926        6.5843142563       12.8516692988
 Pb        12.8051766616        6.1847760395       21.3276210404
 Pb        12.6049219008       18.3155851739        4.2512408607
 Pb        12.8757560294       18.7178922374       12.9477464234
 Pb        12.6491975548       18.4546775473       21.6886094572
 Pb        12.7835362300       30.5221780297        4.4743979595
 Pb        12.5766893103       30.5932032975       13.1904165139
 Pb        12.7359215922       30.7735429557       21.6373406533
 Pb        21.2795630311        6.3202051285        4.6014332340
 Pb        21.4477897408        6.3249091712       12.8761925326
 Pb        21.3391172755        6.5715854794       21.6976167387
 Pb        21.3958875306       18.3569701491        4.5299506808
 Pb        21.5778072734       18.6939264047       12.7659782455
 Pb        21.3468219126       18.6378142148       21.8297140562
 Pb        21.1839967027       30.4602967335        4.6527279906
 Pb        21.0460140297       30.8097097733       12.8560883972
 Pb        21.4063761613       30.5656140103       21.4640111880
 Pb        -0.0717126226        0.2454122593        0.1605420099
 Pb         0.0441668216        0.3611368725        8.5940231202
 Pb         0.1711291186        0.1108072456       16.9350426617
 Pb         0.2818131056       12.1661890308        0.1942981517
 Pb         0.0227412707       12.4147209727        8.6726184967
 Pb         0.2287898668       12.7785109582       17.2491751294
 Pb         0.1575902051       24.2928727822        0.2208791994
 Pb         0.0409407613       24.3346246792        8.8697086951
 Pb        -0.0591340376       24.5926398501       17.2124086270
 Pb         8.5886743540        0.2852941421       -0.0665181311
 Pb         8.4039877650       -0.0154707077        8.5516494618
 Pb         8.5760320810        0.1789419633       17.4643226264
 Pb         8.5602483583       12.3535527916        0.0912163273
 Pb         8.4629798415       12.0488310944        8.7560745952
 Pb         8.1425342989       12.1965545639       17.2982800440
 Pb         8.3929646324       24.3868659300        0.2990895967
 Pb         8.6138053010       24.6443978288        9.0637334305
 Pb         8.3594564807       24.5534583818       17.3607782858
 Pb        16.8356658605        0.3012844217        0.0474151342
 Pb        17.0041034587        0.2086667205        8.6494098992
 Pb        17.2170433965        0.5213703082       17.2113845209
 Pb        17.0101741183       12.2808306879       -0.1351677831
 Pb        16.8677008655       12.7046125142        8.8434590741
 Pb        17.3402244522       12.6239501372       17.1823227745
 Pb        16.9511322986       24.7017979116        0.4770474057
 Pb        17.0299528851       24.3515103203        8.8116860325
 Pb        17.0048270411       24.6169856105       17.4931568881
 Pb         4.1727358646        0.7022627842        4.4799857136
 Pb         4.4038357755        0.2025648152       12.8009591651
 Pb         3.8795824207        0.3668207385       21.3690265986
 Pb         4.4374682603       12.2280902773        4.4965997960
 Pb         4.2222424005       12.4819880922       12.8712104207
 Pb         4.3876297543       12.5528816815       21.6158543475
 Pb         4.3779355211       24.7482127097        4.6896533149
 Pb         4.1437486672       24.4788319951       13.1694604673
 Pb         4.1424494805       24.7449117447       21.3336820229
 Pb        12.4434999175        0.2076072631        4.2598106298
 Pb        12.6521544623        0.3442025224       13.0745129721
 Pb        12.6909295849        0.2034520152       21.5295660668
 Pb        12.9058263832       12.1293814736        4.1397044039
 Pb        12.7464718964       12.5275841926       12.8094114464
 Pb        12.7326762095       12.5207650277       21.2726769069
 Pb        12.7259079390       24.4876748725        4.7990820759
 Pb        12.9266641494       24.5627080987       13.1933781256
 Pb        12.7206846473       24.6099004281       21.3959243242
 Pb        21.4204667334        0.1448256574        4.2479205368
 Pb        21.1258592117        0.5282296344       12.8332272824
 Pb        21.2539630144        0.4941182302       21.3978243203
 Pb        21.1649312465       12.3871629822        4.3515293002
 Pb        21.7227655732       12.5842058021       13.1077558986
 Pb        21.3876946975       12.4352212936       21.5725480782
 Pb        21.3166341790       24.5178539552        4.6138056204
 Pb        21.1767082566       24.7624289772       13.1563007308
 Pb        21.3289489030       24.5019030507       21.6510676140
 Cs         4.2260367107        3.6759465764        0.1245243892
 Cs         4.8158800312        3.2009065159        8.9577047154
 Cs         4.4705387850        3.4024946923       17.0386736640
 Cs         4.1681473579       15.3838343877        0.3735072024
 Cs         4.4564335759       15.4931396001        9.1932625634
 Cs         4.1217218697       15.9524296153       17.4794623706
 Cs         4.3902455390       27.2791063711        0.1062814901
 Cs         4.3901372990       27.1159729707        8.8680598111
 Cs         4.5717399623       27.7201985064       17.4665773871
 Cs        13.3489759372        3.4468324768       -0.1007201815
 Cs        12.6005678669        3.1661260177        8.1444086626
 Cs        13.0105264396        3.0421054648       17.4811284106
 Cs        12.5001919500       14.9908458813        0.5685694690
 Cs        12.2629875637       15.4569400597        8.2447742390
 Cs        12.7325813688       15.2106597242       17.0867310851
 Cs        12.3740859980       27.2542102821       -0.3726258565
 Cs        12.8874180625       27.5791272327        9.2398296745
 Cs        13.0830651980       27.6181955080       17.6659452185
 Cs        21.2440450122        3.3986982036        0.3573606899
 Cs        21.2014873286        3.5173572108        8.7510239866
 Cs        21.3798554514        3.4736293713       16.9262333965
 Cs        21.1422988076       14.9371313457        0.3582483416
 Cs        21.1169478683       15.4305650794        8.8415162114
 Cs        21.2550466047       15.7443074309       17.6669541865
 Cs        21.7279084767       27.4182770683        0.5068158256
 Cs        21.5038931277       27.4817912762        9.1759327395
 Cs        21.6231437378       27.4681510103       17.9562041308
 Cs         8.5562524757        9.4585082474        4.5874984865
 Cs         8.6045110275        9.3818596602       13.0035945418
 Cs         8.9218734699        9.0356230123       21.3778683950
 Cs         8.5306830174       21.1070279913        4.5780738914
 Cs         7.9843161272       21.8724318495       13.2264038186
 Cs         8.1079039022       21.6638990173       22.2657405168
 Cs         8.1965332011       33.3782700766        4.2042647167
 Cs         8.6307675087       33.8877696949       13.2417378839
 Cs         8.0437136392       33.4410860731       21.3697584398
 Cs        17.1513824354        9.1366397388        3.7776510169
 Cs        17.0967764580        9.7069637722       13.0730376758
 Cs        17.0056674603        9.1808198829       20.9630567329
 Cs        17.6359239516       21.4225570643        4.0284074017
 Cs        17.2496781638       21.4953435528       13.0830962394
 Cs        16.7122634638       21.6683311819       21.8870602407
 Cs        16.5514713173       33.4441644531        5.3063377548
 Cs        16.5361221811       33.6698305822       13.3103213257
 Cs        17.0018582415       33.7919564352       22.1090371573
 Cs        24.9497818956        9.3839689951        5.0568391451
 Cs        25.6739249967        9.4398785011       12.8804597753
 Cs        25.8349406681        8.8485578765       21.2140701528
 Cs        25.6499067248       21.4967747367        4.3242008701
 Cs        24.8435490920       22.0051144748       13.4400467110
 Cs        25.1475323122       21.3570813056       21.6182917220
 Cs        25.4765325432       33.2216479230        4.9361547851
 Cs        25.4093555029       33.4389666515       12.8089212542
 Cs        25.4977984747       33.3430419897       21.0997351965
 Cs         4.0613245723        8.9882073661        8.4865826163
 Cs         4.1551287762        9.5211617116       17.0104343604
 Cs         4.1288293294        9.4681440233       25.8370833715
 Cs         4.2342530001       21.5492496076        8.7421467876
 Cs         4.3967348466       21.5494180018       17.6043061944
 Cs         4.1639644959       21.7303683169       25.7368497704
 Cs         3.8906515010       34.0487754523        8.9448984674
 Cs         4.1090591786       33.3401813641       16.4358744382
 Cs         4.3220008750       33.9019150660       25.4651558131
 Cs        12.6731266526        9.2595979221        8.6292115740
 Cs        12.7662102211        9.8316860844       16.7296385400
 Cs        12.7059420139        9.0704775997       25.2136563489
 Cs        12.5678266891       21.4179106602        8.7346370099
 Cs        13.3208193041       20.8559980598       17.4743056076
 Cs        12.9758647645       21.6757660217       26.1060117683
 Cs        12.8567971589       34.1884473316        9.1556437628
 Cs        13.4554394497       33.5285166925       17.8094072852
 Cs        12.9135984877       34.0501794061       26.1274983383
 Cs        20.9246438010       10.2870697842        8.3741227564
 Cs        21.8004547666        9.3787536576       16.7930907109
 Cs        21.5502809663        9.7385536982       26.0183389873
 Cs        21.7350746360       21.8172061277        8.9628065843
 Cs        20.4919161471       21.3970783069       16.8011333380
 Cs        20.6966336833       21.8510690314       25.6124103048
 Cs        21.2870270567       33.2042106611        9.0935940706
 Cs        21.0976691189       33.6193663078       17.1999695023
 Cs        21.0655114069       33.3505123897       25.3706394492
 Cs         0.0980161844        2.7999405178        4.5411401054
 Cs         0.8260991515        3.1121640778       13.0603877222
 Cs         0.3555978168        3.3045390610       21.4378292624
 Cs         0.3758144753       15.7501244768        4.2641022403
 Cs         0.5419800320       15.8708418886       12.9270933033
 Cs        -0.2563631038       15.2879981328       21.9031779400
 Cs         0.7406952621       27.3632760172        4.1601557815
 Cs        -0.1846461318       28.1019045805       12.8180070038
 Cs         0.2737769142       27.9072003896       21.9773387816
 Cs         9.1387747816        3.3633162759        3.9054519693
 Cs         8.7896477094        3.4294621068       12.5358865415
 Cs         8.4254279142        3.2130934106       21.3776038702
 Cs         8.5651061370       15.6818683252        4.8221463388
 Cs         8.8912564970       15.7933974893       13.3497497886
 Cs         8.7230030853       15.3475583328       21.4176562566
 Cs         8.9533067955       27.1271332169        4.0353613247
 Cs         8.9414173138       27.6658458819       13.4138092560
 Cs         8.9860452350       27.6556874340       21.4774921685
 Cs        17.2228061362        2.8807271394        4.4416953121
 Cs        16.8120134804        2.9185235685       12.5136992584
 Cs        17.3577717415        3.6882320844       21.2153587903
 Cs        17.5351262649       15.5194733997        4.2953193499
 Cs        16.9265503434       15.4336639475       13.1025329416
 Cs        16.4627916358       15.6413244524       21.5369726197
 Cs        16.9590830192       27.2347655790        4.8135237051
 Cs        17.2687503942       27.8811213705       13.0013428725
 Cs        17.2254973914       27.6399946669       21.5013204945
 Br         2.6299362533        6.1620798110        2.1083125431
 Br         2.1696119221        6.5548710236       10.7511154773
 Br         2.5000307724        6.3654684374       18.8881778473
 Br         2.2250555713       18.0860093423        2.2204748785
 Br         2.8052167917       18.3612538857       10.3867220148
 Br         2.6165488771       18.6229362732       18.9129666556
 Br         2.8826821789       30.0244237120        2.0005252948
 Br         2.0660079362       30.7119732829       11.1597053780
 Br         2.4278176792       30.5006050622       19.0516067973
 Br        10.4321316889        6.6083627798        2.7126969401
 Br        10.9629040240        5.9032929745       10.8353547488
 Br        10.7562136949        6.3881044895       19.0925720058
 Br        10.4916204686       18.9993385312        1.9511949080
 Br        10.9694917589       18.6042363457       10.3650212285
 Br        11.0160215901       17.8244424124       19.0282811105
 Br        11.1095239892       30.5093478135        1.9051688546
 Br        10.5421670839       30.6422830649       11.2497316454
 Br        11.0682655929       30.4339783876       19.1321439331
 Br        19.7078623558        6.3247243313        1.7691932168
 Br        19.8735077677        6.5070352747       10.2382253088
 Br        19.6181905690        6.1222017789       18.9164276357
 Br        19.4165638557       18.8555691162        2.0907208464
 Br        19.7382614788       18.7014189577       10.2281959795
 Br        19.2432092403       18.6838137807       19.0241753400
 Br        19.8951550821       30.6098020188        1.9682256212
 Br        19.2573764310       30.3850649021       10.4900341091
 Br        19.6681581232       30.1726211625       19.1021510099
 Br         1.6015484097        6.6039457809        6.3647023665
 Br         2.0917133785        6.6397195411       14.9432758901
 Br         2.1979391673        6.1017204222       23.2547044317
 Br         1.6756525792       18.7163034829        6.2110780059
 Br         1.8733072835       19.1054943934       14.5756037319
 Br         1.5431508308       18.4880624065       23.2897652988
 Br         1.8793090279       30.7659295795        6.4973383756
 Br         2.0216285963       31.0693151697       14.8147933391
 Br         1.5528099994       31.1226219851       23.0806541555
 Br        10.6518581323        6.3097047129        6.4041942186
 Br        10.8125130771        7.1643754583       14.8807050731
 Br        10.5196138215        6.7735279185       23.7769011686
 Br        10.5185914354       18.5524556776        6.3075372088
 Br        10.4071833795       19.2181972602       15.3627385380
 Br         9.8576389895       18.4708013528       23.0144915106
 Br        10.5195446114       30.9769127912        6.2826371279
 Br        10.4963543448       31.3877521632       15.0033401112
 Br        10.1373833246       30.7513491838       23.2387459780
 Br        18.5481223737        6.0844697249        5.8689433922
 Br        18.5600156227        6.5955728572       14.4519350009
 Br        19.0757101491        6.8056622867       23.3010204735
 Br        18.8074804705       18.6179659225        6.1231197063
 Br        19.1342782498       17.9537147918       15.0123057725
 Br        18.7644454317       18.9825851320       23.3015327849
 Br        18.7855810763       30.7907142419        6.3006966827
 Br        18.6271904612       31.0704212682       14.5342899483
 Br        18.9884064721       31.0116239852       23.2149026568
 Br         5.8829593930       12.0202570842        7.0716994182
 Br         5.6259167211       12.7770022956       16.0384480886
 Br         5.8910143901       12.7642556053       23.9900401313
 Br         6.0365291582       24.4317270356        7.1634183281
 Br         5.9302618558       24.6004971936       15.5961637779
 Br         6.0724557391       24.4899477833       23.8804164963
 Br         6.2445126763       36.6581829741        6.9713107152
 Br         6.5144642838       36.0409345109       15.4344726925
 Br         6.0699234646       36.9120945954       24.0349034783
 Br        14.3490241480       12.7521977908        6.8728382994
 Br        14.9793990012       12.4379838147       15.1531123392
 Br        14.5532038823       12.5007085790       23.7567609246
 Br        14.6983558999       24.6951508852        7.1283441103
 Br        14.6724462329       25.0367046791       15.6301225397
 Br        14.8192865509       24.9233428234       23.9166729418
 Br        14.4928858653       36.5987690967        7.1219980366
 Br        14.7934909609       36.6123284070       15.6783930213
 Br        14.3308864848       36.7413194608       24.3531388865
 Br        23.2918555450       12.5254284213        6.6127843272
 Br        23.1621063152       13.0244640390       15.8139294610
 Br        23.3068815560       11.7995091279       23.8789654826
 Br        22.9462058274       24.3984319878        7.0429063423
 Br        22.9222317028       24.0604496953       15.8746495189
 Br        23.2591147077       24.0995761724       23.9985591231
 Br        23.3050856567       36.2680244895        7.0547511097
 Br        23.2433275444       36.8020525233       15.3540678028
 Br        22.9188092301       36.3489585086       24.6066260365
 Br         7.0268510506        0.6867875195        2.4497412010
 Br         6.9150333878        0.5692256319       11.1572138413
 Br         6.1847298469        0.3527511521       19.1330535908
 Br         6.7342614806       12.6050270450        2.9498999307
 Br         6.5489614812       12.4641435800       11.2079679977
 Br         6.5495633717       12.9148685068       19.6336092061
 Br         6.6854750732       24.4146460825        2.8093973885
 Br         6.8653743851       24.9610675095       11.4675781300
 Br         6.9298820530       25.1491324918       19.6548160740
 Br        14.9658724321        0.6326294608        2.4423352903
 Br        14.7191195936        0.4853449612       10.6510540647
 Br        15.3776400211        0.8736205844       19.7230373251
 Br        15.4130587715       12.7787764569        2.7596868361
 Br        14.9573081972       13.4822286921       10.9114614790
 Br        14.7049773716       12.5407717668       19.1831040442
 Br        15.1150369269       24.1765818544        2.6883276053
 Br        15.6370684118       24.7045113943       11.6361935930
 Br        15.2940911130       24.6768351499       20.0655123610
 Br        24.0146838366        0.0707053378        2.8076052093
 Br        23.8027179688        0.6649318320       11.1138939055
 Br        23.7669081175        0.6448842722       19.1741652339
 Br        23.5879129609       12.4681010900        2.4964407259
 Br        23.7942657199       13.0954560517       11.0741355154
 Br        23.2906798808       13.4438297284       19.5552479365
 Br        23.7609681970       24.9483185692        2.8150091713
 Br        23.6605412874       24.8512367539       11.5884491595
 Br        23.8936372419       25.1777173133       19.9423110183
 Br         6.1612865903        6.0231114747        6.7845305954
 Br         6.3781859943        5.9050210208       14.8501057977
 Br         6.5747897635        5.9167042859       23.5793867786
 Br         5.9968478341       18.5055591732        7.1435906418
 Br         6.3386381342       19.1602343078       15.0722108155
 Br         5.6654322365       18.8522688044       24.0961030207
 Br         6.0580687161       31.6904992977        6.6716396130
 Br         6.1066224012       30.7318071586       15.5279816374
 Br         5.9763477142       30.9307793233       24.0013973429
 Br        14.4065969003        6.4308861894        7.1632793506
 Br        14.9011885449        7.2867929948       15.2968589660
 Br        14.7251664471        6.3726036918       23.4441361083
 Br        14.5984674119       18.3509112981        7.0101340180
 Br        14.5807730043       18.3760769637       15.3857914678
 Br        14.1762470218       18.3634241184       24.3296655316
 Br        14.5178046447       30.5909481749        7.0730660346
 Br        14.7414348922       30.6926350051       15.6484479813
 Br        14.5122068937       31.1882466135       24.2801074160
 Br        22.7103260026        6.4180067169        7.0618123329
 Br        22.8639977717        6.2841849746       15.5533391419
 Br        23.3914995356        7.1593521991       23.8294180250
 Br        22.8158347006       18.4906800786        7.2820702929
 Br        22.9781526005       19.0266440911       15.2911418933
 Br        22.7267970277       19.0340873625       24.4011357576
 Br        23.2395281966       30.6361758186        6.9561984655
 Br        23.3194464798       30.9770907622       15.3786416304
 Br        23.1363374969       30.6289704393       24.2693584351
 Br         6.3100512732        5.7445777008        2.5621086822
 Br         6.6000225766        6.4830715646       10.7250082198
 Br         6.5277175985        6.2717963128       19.0494869467
 Br         6.8286984113       18.3395443138        3.1881934104
 Br         7.0757537312       18.4123539065       11.4027000060
 Br         6.6252287630       17.9491459535       19.5934162783
 Br         6.7411197163       30.2353610500        2.7575268600
 Br         6.2819048518       29.9471597380       10.3674780489
 Br         6.7939263344       30.2723093484       20.0966686806
 Br        15.5351475044        5.8745474350        2.5933244955
 Br        15.5536648639        6.4133196892       11.2137033526
 Br        15.0110006569        5.8135787130       19.4390057445
 Br        15.2549069458       18.0617204122        2.6638932890
 Br        15.5111169730       18.0258295821       11.4753466846
 Br        15.1928702369       18.7699430936       19.9000092398
 Br        15.5523091950       30.3884176099        2.9504421208
 Br        15.3869175271       30.7517700472       11.4521417032
 Br        15.1853254961       30.6433245895       20.0053303954
 Br        23.7657282683        5.9706592949        2.6479497788
 Br        23.5625922313        5.2514894640       11.3206122974
 Br        23.6765059451        6.0981017541       19.7455447451
 Br        23.7877377667       18.5571509809        2.7562832535
 Br        24.2598986245       18.7905590104       11.6170068174
 Br        23.5529429107       18.8261497161       19.7018764525
 Br        23.8937376580       30.5206553002        3.0077548320
 Br        23.4498095545       30.4415230626       11.0046326277
 Br        23.7879942198       29.7523237939       19.6871509645
 Br         2.5455950817        1.0338496886        2.2190267469
 Br         2.4092750962        0.5625426382       10.4166796458
 Br         2.2765667364       -0.5619098573       18.8963238716
 Br         3.0864083826       12.5590531787        1.8909707155
 Br         2.7278921038       11.8945258414       10.3574167958
 Br         2.7072620870       12.3799908117       18.9738506453
 Br         2.8656592619       24.4494003040        1.6035463443
 Br         2.3011980273       24.4251062791       10.6097457646
 Br         2.7598983965       25.0732255553       18.8395445678
 Br        11.1556001001        0.4074076475        1.6821589394
 Br        10.8230518955        0.3917588469       10.6207439092
 Br        11.2422279180       -0.0340240731       18.9431678445
 Br        11.2685919140       11.8567606182        1.3344880608
 Br        10.9358842991       12.6020612951       10.3953258719
 Br        10.5887135499       12.2430222528       19.2133883711
 Br        10.9501390963       24.6664843032        1.8998156429
 Br        11.2794434813       24.3273544783       10.6085366228
 Br        11.0989699465       24.9379643240       18.8297173350
 Br        20.0275450122       -0.0182580281        1.6848046603
 Br        18.8706858130       -0.0059341526       11.1024280063
 Br        19.3062647039        1.1209709714       19.2175550994
 Br        19.4279026288       12.1770111422        1.9823405159
 Br        19.4929483614       12.5137407336       10.8263445075
 Br        19.2578986940       12.9256375977       19.4905489932
 Br        19.3755666909       25.0869390307        2.5782273685
 Br        19.7979805405       24.7620532847       10.5793851413
 Br        19.6649775643       24.4787780344       19.2048990598
 Br         1.7632359043       12.0073629609        6.3728411613
 Br         1.4780095413       12.2048549873       14.8064408791
 Br         1.6983019240       12.0864114725       23.1817168719
 Br         1.9277172150       24.6258611489        6.4493921614
 Br         1.8859357114       24.2333599224       14.7960313620
 Br         1.4530295888       24.5839022186       22.8903051012
 Br         1.9316861980       36.0386155796        6.5480852639
 Br         1.7957310796       36.1557197349       14.6335460291
 Br         1.5838438518       37.1620678900       23.6438656846
 Br        10.3204595134       12.5335473788        6.2646308997
 Br        10.5812820201       11.8590325859       14.7795971104
 Br        10.1903657284       12.2651321150       23.0892847602
 Br        10.3622786209       23.9603133930        6.4888201356
 Br        10.4120183897       24.4659365100       14.7899121171
 Br        10.4674985466       24.7394118096       23.2103580927
 Br         9.9421230719       36.4260783314        6.3981938002
 Br        10.3549237337       36.4849248755       15.0578182899
 Br        10.2072843961       35.9415377862       23.1498407055
 Br        18.8454476250       12.4880835704        6.3017658244
 Br        19.3193883115       12.4128862313       14.8153436220
 Br        18.7368881944       12.1801038060       23.0843453987
 Br        19.0471231494       23.8149395780        6.5588470794
 Br        19.0267137169       24.5781869927       15.3327206853
 Br        18.8483235844       24.2664195489       23.5133019254
 Br        18.7985896508       36.4130271094        6.3945314237
 Br        19.0762058085       36.0036037611       15.3093012283
 Br        18.5455768967       36.4812098001       23.1201243427
 Br         0.4829794764        9.3047679254        0.4867163621
 Br        -0.6152143787        9.2083767516        8.8482159528
 Br         0.1921461815        9.2482870417       17.1911107108
 Br         0.5001264182       21.4409648090        0.4427849065
 Br         0.2163678262       21.3579043659        8.4659721951
 Br         0.6231499388       21.8842609504       17.8541966158
 Br         0.6034917429       33.7258021317        0.4817911030
 Br        -0.1010522346       33.3431815416        9.1859708957
 Br        -0.6905273679       33.7214970007       17.0021645889
 Br         8.1163443448        9.1799138640        0.5512816191
 Br         8.7630590865        9.2015878824        8.5306050307
 Br         7.8454080807        9.2762370306       17.1466149867
 Br         7.9124472486       21.2976155442        0.2789022005
 Br         8.0623019946       21.4252179011        8.9256962480
 Br         8.4305730004       21.4051003359       18.1927189440
 Br         8.0473592294       33.6966191280        0.6966001694
 Br         7.8878618400       33.5043836710        9.4412662647
 Br         8.7418678930       33.6127534233       17.6116133104
 Br        16.5049469166        9.3734785199        0.2415803710
 Br        17.0671758907        9.5997702246        9.1913826732
 Br        17.5789234770        9.3289567835       17.4165485692
 Br        16.9830285536       21.3311596122        0.3321748333
 Br        16.6009823857       21.3655325509        9.1603121451
 Br        16.8379358651       21.3433490544       17.0186629575
 Br        16.7907574400       33.7614590313        0.8392661808
 Br        17.0747653709       33.7129639760        8.7089391630
 Br        17.2638356864       33.3509954307       18.1364887514
 Br         3.7705980991        3.5210930578        5.2511571123
 Br         4.1867382155        3.3681370795       13.2863034433
 Br         4.2926950321        3.3134784407       20.5437252127
 Br         3.9609078076       15.3111238639        4.9245960656
 Br         4.0440478463       15.4578296073       13.3381262297
 Br         3.6364687515       15.5870390794       21.5009118557
 Br         4.5337542561       27.5589696199        5.1216914800
 Br         4.3338765584       27.6675559770       13.3052745845
 Br         4.2799868489       27.8684045728       22.1456248546
 Br        12.6640116484        3.3253188113        4.1817475679
 Br        12.8743396237        3.3184977959       13.5040059547
 Br        12.0309993786        3.2540277781       21.6458446580
 Br        12.2390297906       15.0799153865        4.1387122702
 Br        12.4379837962       15.5274624051       13.3703007346
 Br        12.8573498466       15.4265074705       21.6867900823
 Br        12.7079812323       27.4340224904        4.6572070902
 Br        12.5623040091       27.4229597883       13.0595545892
 Br        12.6538039468       27.6056031641       21.4381187733
 Br        21.1669482628        3.3993338617        4.6368481458
 Br        20.4815827787        3.2921555555       13.0493033774
 Br        21.8123772614        3.4135282449       22.0318282251
 Br        21.2612449024       15.4634834778        4.9075326356
 Br        21.0837158273       15.4904707227       12.9248170559
 Br        21.0735169242       15.3724827334       22.0603694096
 Br        20.7928912001       27.3323117924        5.3709646540
 Br        21.2570410557       27.7498036722       13.3020041831
 Br        21.0230374555       27.6113366187       21.8195528408
 Br         8.3675926660        3.1127701560        8.6843132312
 Br         9.1159062653        3.1548694701       17.4886842249
 Br         9.5023593109        3.2642580022       25.4595817195
 Br         8.2327963943       15.3153717825        8.2638086434
 Br         8.7841088864       15.3700784391       16.8447408673
 Br         8.4107446003       15.4876708698       25.5560813612
 Br         9.1962595576       27.4089598364        8.2814339759
 Br         8.4844085816       27.6039920545       17.0880472808
 Br         8.2142615383       27.5283298509       25.8115635166
 Br        17.2275925226        3.2856182690        8.7756446221
 Br        17.1744392564        3.2777313998       16.2054004304
 Br        17.5404741448        3.4094714479       25.0722636467
 Br        17.3384953142       15.6614171717        8.6287268844
 Br        16.7916845025       15.4627587972       17.5454025378
 Br        17.6260312089       15.5180250313       26.0740975046
 Br        17.0480074142       27.5641627716        8.7062836119
 Br        17.5252038675       27.3987294449       17.4475126948
 Br        16.9406565131       27.9895478079       26.1653678938
 Br        25.9648193917        3.2396600421        8.1924061279
 Br        25.9136005196        3.0873449876       16.9646971889
 Br        25.0681666896        3.4824712886       25.3540397635
 Br        26.1841087970       15.4969611872        9.0416348780
 Br        25.7800320592       15.8365841529       17.0104367192
 Br        25.0143879325       15.3719855889       25.5792624789
 Br        25.7060342508       27.3494741485        9.1662418697
 Br        25.9519442450       27.7047932523       16.2320510161
 Br        25.6120523112       28.0995533124       25.7059659319
 Br         4.4938799699        9.3241769334        4.5419904102
 Br         4.2384479908        9.3357617605       13.0560932967
 Br         4.7415282440        9.3761473087       21.5507749187
 Br         3.7129368312       21.4459948235        4.2725219389
 Br         4.5381120432       21.6739966739       12.4596551301
 Br         4.2202299187       21.6205527466       21.5372510911
 Br         4.3866226882       33.7672918626        3.9273921136
