       6
 i =        1, E =       -13.7219886038
  C        -2.5778958743        0.0754512898       -0.0000007818
  H        -2.0619026405       -0.8757466218        0.0000004583
  H        -3.6598403063        0.0446122247        0.0000008434
  C        -1.9069553832        1.2361419878       -0.0000009117
  H        -2.4230528674        2.1874172777        0.0000002812
  H        -0.8251213019        1.2664831012        0.0000001114
       6
 i =        2, E =       -13.7220989156
  C        -2.5756811067        0.0767667922        0.0000003765
  H        -2.0667813651       -0.8838357983       -0.0000000648
  H        -3.6620785762        0.0376912517        0.0000002668
  C        -1.9091274142        1.2346842288        0.0000000222
  H        -2.4179051880        2.1953314907       -0.0000001851
  H        -0.8227842457        1.2737643902       -0.0000004185
       6
 i =        3, E =       -13.7220999155
  C        -2.5763879746        0.0770172163        0.0000000938
  H        -2.0662861314       -0.8830324130        0.0000000625
  H        -3.6628978022        0.0375123082        0.0000003740
  C        -1.9082412153        1.2344755057       -0.0000000618
  H        -2.4184576453        2.1944758451       -0.0000001101
  H        -0.8217784972        1.2739067749       -0.0000003635
       6
 i =        4, E =       -13.7220999155
  C        -2.5763879746        0.0770172163        0.0000000938
  H        -2.0662861314       -0.8830324130        0.0000000625
  H        -3.6628978022        0.0375123082        0.0000003740
  C        -1.9082412153        1.2344755057       -0.0000000618
  H        -2.4184576453        2.1944758451       -0.0000001101
  H        -0.8217784972        1.2739067749       -0.0000003635
