     149
 i =       47, E =     -4043.8485700335
 Cd        12.3180740217       13.5624904862       10.9633137132
 Cd        12.4173578270       10.8827740172       14.2697857340
 Cd        10.0322495579       14.3410885796       14.3846356266
 Cd        15.7371538317       15.8281515763       10.1092610064
 Cd        15.8308599106       13.0309893410       13.2697901687
 Cd        13.4059956665       16.7624094354       13.5223660794
 Cd        15.7489403741       10.3341404600       16.5983154490
 Cd        13.4177220861       13.8860117436       16.9196089320
 Cd        11.2382630337       17.5263156273       17.0810583729
 Cd        19.2550174489       15.3837050685       12.5360607088
 Cd        16.9317045363       18.9946043726       12.7887690803
 Cd        19.2259269847       12.6772746030       15.7545981014
 Cd        17.0606698521       16.2890694381       16.0272025934
 Cd        14.6573689920       19.7756515410       16.2249372482
 Cd        16.9468828691       13.5009064181       19.2806513776
 Cd        14.7022051864       16.9282281136       19.3843934477
 Se        13.8041115271       11.6868039647       12.1366166863
 Se        11.2748521823       15.5757246902       12.3675422259
 Se        11.2733156214       12.5882619191       15.9619904011
 Se        17.3579454745       14.0315527665       11.2480333476
 Se        14.8510301744       17.9167585918       11.5129797322
 Se        17.3300870150       11.1947410895       14.6165860303
 Se        14.9391041642       14.9904490103       14.9308545275
 Se        12.4765465096       18.7696572542       15.0676365461
 Se        14.8557094011       12.0939806873       18.3976427249
 Se        12.4558730438       15.7237077235       18.6196302628
 Se        18.6404086290       17.4306139568       14.1247829497
 Se        18.6143399214       14.5971687533       17.4962977437
 Se        16.2796780501       18.2477767242       17.6861601001
 Cd        11.5413892201       10.4980677445        8.3817657870
 Cd         9.1082716360       14.4851623077        8.7264883444
 Cd        11.0883801980        7.9711834528       11.3170467704
 Cd         8.8688191822       10.9532292092       11.6446552651
 Cd         6.9648677401       15.1469176491       12.0493234428
 Cd         9.0682263947        8.7864832983       15.5474426334
 Cd         6.9560656720       12.1881467366       15.5601411375
 Cd        14.6524898570       12.5407327553        7.4291711172
 Cd        12.1884951015       16.4644867706        7.7142297245
 Cd        14.7181236833        9.6211619872       10.3843848987
 Cd         9.7608731712       17.5217952698       10.9281486528
 Cd        14.4441053783        7.2054785089       13.6147546795
 Cd         7.7630368981       18.0672011495       14.4940001849
 Cd        12.1606183523        8.1180037084       17.5852330988
 Cd         9.7290055305       11.4831722550       18.0976456078
 Cd         7.7499485315       15.1076976923       18.0094219642
 Cd        17.8775527331       14.5581554439        6.9663183123
 Cd        15.3056497526       18.5996523262        7.2324214337
 Cd        18.1438974651       11.8300943716        9.6118695905
 Cd        13.1189169457       19.7238181818       10.1527655195
 Cd        18.0953305709        9.2086855063       12.7260433964
 Cd        10.8980206815       20.5511123145       13.4847173248
 Cd        17.7019940213        7.0347843329       15.7954605937
 Cd         9.1151327056       20.8389672929       16.8693170645
 Cd        15.2592680957        8.0016639787       19.7868231786
 Cd        13.0945374551       11.0732738738       20.3913853203
 Cd        10.8641774709       14.4879243087       20.6522940261
 Cd         9.1092477371       17.8759763809       20.3800524937
 Cd        21.1888859257       14.1250873855        9.2746178010
 Cd        19.0094196203       17.9728712655        9.5896253359
 Cd        16.4325279167       21.5767243282        9.7573528716
 Cd        21.4336665774       11.6655947485       12.1834004679
 Cd        14.4894164331       22.5686216527       12.8842515643
 Cd        21.1007111865        9.2182577147       15.1041431790
 Cd        12.3358122894       23.0478026376       15.9740658198
 Cd        18.9594582535       10.1868221545       18.8252669389
 Cd        12.5659702101       20.7534514183       19.9415911310
 Cd        16.3808777964       10.9739937365       22.3112799798
 Cd        14.4707580366       14.2313730653       22.7609429505
 Cd        12.2840226014       17.2863368890       22.7425770995
 Cd        22.5229302308       17.6587181423       12.2679208174
 Cd        20.3448082144       21.0741837525       12.4898967354
 Cd        22.7375870618       15.1150174407       15.1059712076
 Cd        20.7574115976       18.7652208351       15.4880234263
 Cd        18.2710299445       22.1203038186       15.5339369936
 Cd        22.4421359161       12.7863270872       18.1226535545
 Cd        20.7130975020       16.1615594329       18.6126298756
 Cd        18.4908389600       19.6328769125       18.8528415574
 Cd        16.1401184475       22.6743406645       18.6741619634
 Cd        20.2090062973       13.6979757238       21.4363512876
 Cd        18.1299419509       16.9934253128       21.8952742574
 Cd        15.7643465923       20.3897175122       21.8180503787
 Se        12.5968249485        8.3374482789        9.2309232644
 Se        10.1872260979       12.3185496999        9.7426704092
 Se         7.5629810252       16.2164213918        9.7965955870
 Se        10.2922227039        9.5087326358       13.3540481947
 Se         7.8555539508       12.9481496369       13.1978776067
 Se         7.5049571115       10.1632632380       17.0305871717
 Se        16.1485603637       10.6470482576        8.3718203902
 Se        13.7145909160       14.5978660658        8.8964212732
 Se        11.1386284857       18.5232197032        8.8882556685
 Se        16.1159311725        7.7997241365       11.7154881281
 Se         8.7400141800       19.3940478821       12.4898949265
 Se        13.7325695404        8.9408683869       15.5696766353
 Se         9.0891187455       16.2895626773       16.0045435371
 Se        11.1118317486        9.6359610927       19.4106813235
 Se         8.6973831603       13.3460213803       19.6623057223
 Se        19.7476230535       12.9273108715        7.5534054839
 Se        17.2593170253       16.9456873575        7.9717242131
 Se        14.6417492489       20.9075820999        8.0766562285
 Se        19.7610996264       10.1703929183       10.8952376116
 Se        12.3628775397       21.7718801302       11.6347218015
 Se        19.6506253808        7.3476514164       14.1708886849
 Se         9.9574738625       22.5681394109       15.1737913789
 Se        17.2398830367        8.3956662554       18.0582508822
 Se        10.3692175141       19.5975342688       18.8268501312
 Se        14.5842399853        9.2141963393       21.9205836581
 Se        12.3388612020       12.8773798889       22.1607843234
 Se         9.8901370172       16.4675011196       22.3716053179
 Se        20.9268863470       16.4715326102       10.5020185684
 Se        18.5050338449       20.2347929735       10.7570387076
 Se        20.8332566149       13.6779290507       13.8615678102
 Se        16.1328162791       21.0111298494       14.3276098280
 Se        20.8669832265       10.8527704068       17.1911982280
 Se        13.7810435237       21.8487270010       17.8092637744
 Se        18.4918827777       11.7177154567       20.8737150946
 Se        16.1576657956       15.3637521172       21.0053177975
 Se        13.7764883865       18.7297331843       21.1558515409
 Se        22.3850704262       19.8992678911       13.4662797600
 Se        22.3649354152       17.0787018772       16.7470779554
 Se        19.9804724924       20.8000376154       16.9637428290
 Se        22.2916809377       14.3642445414       20.1124439194
 Se        19.9567558299       17.9961628870       20.3415430327
 Se        17.6117537098       21.6439633226       20.4838284189
 Cl        13.6847639942       22.2726902726       21.7027553160
 Cl        16.1860383819       23.6232425018       11.1434323690
 Cl        10.2882178807       15.0674161298        6.5882400456
 Cl        16.1321563270       12.6701108513       24.1105120876
 Cl         8.6012604416        8.7838231179       10.2739917141
 Cl        24.1011571633       13.2070551935       16.3032692741
 Cl         6.9153065320       17.2015729814       19.3639123736
 Cl        17.2089990304       24.0838688994       16.8712049710
 Cl        13.7383989533        6.3346553841       18.7446392459
 Cl        17.0592677295       18.7727178653       23.4193000581
 Cl        13.8381119094       24.4707931232       14.5528055943
 Cl        12.4945395849       11.6038975045        6.3192144296
 Cl        10.2335439034        6.7595273438       16.4659019477
 Cl         5.7254475638       14.0558896178       16.6973960337
 Cl        19.3732879696       15.0613575200       23.3193058042
 Cl        22.9559821529       10.1696920321       13.7269738796
 Cl        15.7926317544        5.5571294543       15.2772471483
 Cl        23.0092915287       12.9141049711       10.4721875887
 Cl        19.5109838399       23.2043189854       13.4505983223
 Cl         5.7299967600       16.6208054066       13.6566825713
 Cl        12.2902239292        6.1164419222       12.7168824561
 Cl        13.7887126567       17.2850800777        5.7694545612
 Cl        15.9747111974       13.8560281996        5.5379184466
 Cl        24.1448237512       15.9227883960       13.0258702028
 Cl        13.7800127558       16.1384600475       24.4019185152
 Cl         6.9187613667       19.7644896425       16.3191898797

